# Migration and transformation of organic matter
ROCKS----1----*----2----*----3----*----4----*----5----*----6----*----7----*----8
SAND1    1     2700.       0.3   2.0E-11   2.0E-11   2.0E-11      2.51     952.9
                                    0.00 
SILT2    1     2700.       0.3   1.0E-11   1.0E-11   1.0E-11      2.51     952.9
                                    0.00 

MULTI----1----*----2----*----3----*----4----*----5----*----6----*----7----*----8
    1    1    2    6                                                              
START----1----*----2----*----3----*----4----*----5----*----6----*----7----*----8
REACT----1MOPR(20)-2----*----3----*----4----*----5----*----6----*----7----*----8
0002
PARAM----1----*-123456789012345678901234----*----5----*----6----*----7----*----8
   49999    9999000000000000020571005000   
 0.00000E05.25960E06    1.e+01  8.64E+03F   1       9.806650
    1.E-05
           1.201E+05                25.0

TIMES----1----*----2----*----3----*----4----*----5----*----6----*----7----*----8
    6
8.64000E038.64000E044.32000E058.64000E052.62980E065.25960E067.88940E061.05192E07
1.31490E071.57788E072.36682E073.15576E07

GENER----1----*----2----*----3----*----4----*----5----*----6----*----7----*----8
A5114    0                   1     WATE 5.78704E-5          0.                  
A11 2    0                   1     WATE 1.5000E-04          0.                  
A11 3    0                   1     WATE 1.2000E-04          0.                  
A11 4    0                   1     WATE 1.2000E-04          0.                  
A11 5    0                   1     WATE 1.2000E-04          0.                  
A11 6    0                   1     WATE 9.0000E-05          0.                  
A11 7    0                   1     WATE 9.0000E-05          0.                  
A11 8    0                   1     WATE 6.0000E-05          0.                  
A11 9    0                   1     WATE 6.0000E-05          0.                  
A1110    0                   1     WATE 3.0000E-05          0.                  
A1111    0                   1     WATE 3.0000E-05          0.                  
A1112    0                   1     WATE 1.5000E-05          0.                  
A1113    0                   1     WATE 1.2000E-05          0.                  
A1114    0                   1     WATE 6.0000E-06          0.                  
A1115    0                   1     WATE 1.2000E-05          0.                  
A1116    0                   1     WATE 1.5000E-05          0.                  
A1117    0                   1     WATE 3.0000E-05          0.                  
A1118    0                   1     WATE 3.0000E-05          0.                  
A1119    0                   1     WATE 6.0000E-05          0.                  
A1120    0                   1     WATE 6.0000E-05          0.                  
A1121    0                   1     WATE 9.0000E-05          0.                  
A1122    0                   1     WATE 9.0000E-05          0.                  
A1123    0                   1     WATE 1.2000E-04          0.                  
A1124    0                   1     WATE 1.2000E-04          0.                  
A1125    0                   1     WATE 1.2000E-04          0.                  
A1126    0                   1     WATE 1.5000E-04          0.                  


ENDCY

