# Transport of NaCl solution
# EOS1 flow input
ROCKS----1----*----2----*----3----*----4----*----5----*----6----*----7----*----8----*----9----*----0----*----1
ROCK1    1     2600.       0.1  6.51E-12  6.51E-12  6.51E-12  0.00E+00     952.9       0.1       0.1       0.1
                                    0.00 

MULTI----1----*----2----*----3----*----4----*----5----*----6----*----7----*----8
    1    1    2    6                                                               ! Isothermal case
START----1----*----2----*----3----*----4----*----5----*----6----*----7----*----8
REACT----1MOPR(20)-2----*----3----*----4----*----5----*----6----*----7----*----8
0002
PARAM----1----*-123456789012345678901234----*----5----*----6----*----7----*----8
   29999    9999000000000000020571006000   
 0.00000E0  8.6400E4    1.e+01  8.64E+03F   1      -9.806650
    1.E-06
           1.001E+05                25.0

ELEME
A11 1              10.2000E+000.4000E+000.0000E+000.1000E+000.5000E+00-.5000E+00
A11 2              10.2000E+000.4000E+000.0000E+000.3000E+000.5000E+00-.5000E+00
A11 3              10.2000E+000.4000E+000.0000E+000.5000E+000.5000E+00-.5000E+00
A11 4              10.2000E+000.4000E+000.0000E+000.7000E+000.5000E+00-.5000E+00
A11 5              10.2000E+000.4000E+000.0000E+000.9000E+000.5000E+00-.5000E+00
A11 6              10.2000E+000.4000E+000.0000E+000.1100E+010.5000E+00-.5000E+00
A11 7              10.2000E+000.4000E+000.0000E+000.1300E+010.5000E+00-.5000E+00
A11 8              10.2000E+000.4000E+000.0000E+000.1500E+010.5000E+00-.5000E+00
A11 9              10.2000E+000.4000E+000.0000E+000.1700E+010.5000E+00-.5000E+00
A1110              10.2000E+000.4000E+000.0000E+000.1900E+010.5000E+00-.5000E+00
A1111              10.2000E+000.4000E+000.0000E+000.2100E+010.5000E+00-.5000E+00
A1112              10.2000E+000.4000E+000.0000E+000.2300E+010.5000E+00-.5000E+00
A1113              10.2000E+000.4000E+000.0000E+000.2500E+010.5000E+00-.5000E+00
A1114              10.2000E+000.4000E+000.0000E+000.2700E+010.5000E+00-.5000E+00
A1115              10.2000E+000.4000E+000.0000E+000.2900E+010.5000E+00-.5000E+00
A1116              10.2000E+000.4000E+000.0000E+000.3100E+010.5000E+00-.5000E+00
A1117              10.2000E+000.4000E+000.0000E+000.3300E+010.5000E+00-.5000E+00
A1118              10.2000E+000.4000E+000.0000E+000.3500E+010.5000E+00-.5000E+00
A1119              10.2000E+000.4000E+000.0000E+000.3700E+010.5000E+00-.5000E+00
A1120              10.2000E+000.4000E+000.0000E+000.3900E+010.5000E+00-.5000E+00
A1121              10.2000E+000.4000E+000.0000E+000.4100E+010.5000E+00-.5000E+00
A1122              10.2000E+000.4000E+000.0000E+000.4300E+010.5000E+00-.5000E+00
A1123              10.2000E+000.4000E+000.0000E+000.4500E+010.5000E+00-.5000E+00
A1124              10.2000E+000.4000E+000.0000E+000.4700E+010.5000E+00-.5000E+00
A1125              10.2000E+000.4000E+000.0000E+000.4900E+010.5000E+00-.5000E+00
A1126              10.2000E+000.4000E+000.0000E+000.5100E+010.5000E+00-.5000E+00
A1127              10.2000E+000.4000E+000.0000E+000.5300E+010.5000E+00-.5000E+00
A1128              10.2000E+000.4000E+000.0000E+000.5500E+010.5000E+00-.5000E+00
A1129              10.2000E+000.4000E+000.0000E+000.5700E+010.5000E+00-.5000E+00
A1130              10.2000E+000.4000E+000.0000E+000.5900E+010.5000E+00-.5000E+00
A1131              10.2000E+000.4000E+000.0000E+000.6100E+010.5000E+00-.5000E+00
A1132              10.2000E+000.4000E+000.0000E+000.6300E+010.5000E+00-.5000E+00
A1133              10.2000E+000.4000E+000.0000E+000.6500E+010.5000E+00-.5000E+00
A1134              10.2000E+000.4000E+000.0000E+000.6700E+010.5000E+00-.5000E+00
A1135              10.2000E+000.4000E+000.0000E+000.6900E+010.5000E+00-.5000E+00
A1136              10.2000E+000.4000E+000.0000E+000.7100E+010.5000E+00-.5000E+00
A1137              10.2000E+000.4000E+000.0000E+000.7300E+010.5000E+00-.5000E+00
A1138              10.2000E+000.4000E+000.0000E+000.7500E+010.5000E+00-.5000E+00
A1139              10.2000E+000.4000E+000.0000E+000.7700E+010.5000E+00-.5000E+00
A1140              10.2000E+000.4000E+000.0000E+000.7900E+010.5000E+00-.5000E+00
A1141              10.2000E+000.4000E+000.0000E+000.8100E+010.5000E+00-.5000E+00
A1142              10.2000E+000.4000E+000.0000E+000.8300E+010.5000E+00-.5000E+00
A1143              10.2000E+000.4000E+000.0000E+000.8500E+010.5000E+00-.5000E+00
A1144              10.2000E+000.4000E+000.0000E+000.8700E+010.5000E+00-.5000E+00
A1145              10.2000E+000.4000E+000.0000E+000.8900E+010.5000E+00-.5000E+00
A1146              10.2000E+000.4000E+000.0000E+000.9100E+010.5000E+00-.5000E+00
A1147              10.2000E+000.4000E+000.0000E+000.9300E+010.5000E+00-.5000E+00
A1148              10.2000E+000.4000E+000.0000E+000.9500E+010.5000E+00-.5000E+00
A1149              10.2000E+000.4000E+000.0000E+000.9700E+010.5000E+00-.5000E+00
A1150              10.2000E+000.4000E+000.0000E+000.9900E+010.5000E+00-.5000E+00
A1151              10.2000E+000.4000E+000.0000E+000.1010E+020.5000E+00-.5000E+00
A1152              10.2000E+000.4000E+000.0000E+000.1030E+020.5000E+00-.5000E+00
A1153              10.2000E+000.4000E+000.0000E+000.1050E+020.5000E+00-.5000E+00
A1154              10.2000E+000.4000E+000.0000E+000.1070E+020.5000E+00-.5000E+00
A1155              10.2000E+000.4000E+000.0000E+000.1090E+020.5000E+00-.5000E+00
A1156              10.2000E+000.4000E+000.0000E+000.1110E+020.5000E+00-.5000E+00
A1157              10.2000E+000.4000E+000.0000E+000.1130E+020.5000E+00-.5000E+00
A1158              10.2000E+000.4000E+000.0000E+000.1150E+020.5000E+00-.5000E+00
A1159              10.2000E+000.4000E+000.0000E+000.1170E+020.5000E+00-.5000E+00
A1160              10.2000E+000.4000E+000.0000E+000.1190E+020.5000E+00-.5000E+00
     
CONNE
A11 1A11 2                   10.1000E+000.1000E+000.1000E+010.0000E+000.0000E+00
A11 2A11 3                   10.1000E+000.1000E+000.1000E+010.0000E+000.0000E+00
A11 3A11 4                   10.1000E+000.1000E+000.1000E+010.0000E+000.0000E+00
A11 4A11 5                   10.1000E+000.1000E+000.1000E+010.0000E+000.0000E+00
A11 5A11 6                   10.1000E+000.1000E+000.1000E+010.0000E+000.0000E+00
A11 6A11 7                   10.1000E+000.1000E+000.1000E+010.0000E+000.0000E+00
A11 7A11 8                   10.1000E+000.1000E+000.1000E+010.0000E+000.0000E+00
A11 8A11 9                   10.1000E+000.1000E+000.1000E+010.0000E+000.0000E+00
A11 9A1110                   10.1000E+000.1000E+000.1000E+010.0000E+000.0000E+00
A1110A1111                   10.1000E+000.1000E+000.1000E+010.0000E+000.0000E+00
A1111A1112                   10.1000E+000.1000E+000.1000E+010.0000E+000.0000E+00
A1112A1113                   10.1000E+000.1000E+000.1000E+010.0000E+000.0000E+00
A1113A1114                   10.1000E+000.1000E+000.1000E+010.0000E+000.0000E+00
A1114A1115                   10.1000E+000.1000E+000.1000E+010.0000E+000.0000E+00
A1115A1116                   10.1000E+000.1000E+000.1000E+010.0000E+000.0000E+00
A1116A1117                   10.1000E+000.1000E+000.1000E+010.0000E+000.0000E+00
A1117A1118                   10.1000E+000.1000E+000.1000E+010.0000E+000.0000E+00
A1118A1119                   10.1000E+000.1000E+000.1000E+010.0000E+000.0000E+00
A1119A1120                   10.1000E+000.1000E+000.1000E+010.0000E+000.0000E+00
A1120A1121                   10.1000E+000.1000E+000.1000E+010.0000E+000.0000E+00
A1121A1122                   10.1000E+000.1000E+000.1000E+010.0000E+000.0000E+00
A1122A1123                   10.1000E+000.1000E+000.1000E+010.0000E+000.0000E+00
A1123A1124                   10.1000E+000.1000E+000.1000E+010.0000E+000.0000E+00
A1124A1125                   10.1000E+000.1000E+000.1000E+010.0000E+000.0000E+00
A1125A1126                   10.1000E+000.1000E+000.1000E+010.0000E+000.0000E+00
A1126A1127                   10.1000E+000.1000E+000.1000E+010.0000E+000.0000E+00
A1127A1128                   10.1000E+000.1000E+000.1000E+010.0000E+000.0000E+00
A1128A1129                   10.1000E+000.1000E+000.1000E+010.0000E+000.0000E+00
A1129A1130                   10.1000E+000.1000E+000.1000E+010.0000E+000.0000E+00
A1130A1131                   10.1000E+000.1000E+000.1000E+010.0000E+000.0000E+00
A1131A1132                   10.1000E+000.1000E+000.1000E+010.0000E+000.0000E+00
A1132A1133                   10.1000E+000.1000E+000.1000E+010.0000E+000.0000E+00
A1133A1134                   10.1000E+000.1000E+000.1000E+010.0000E+000.0000E+00
A1134A1135                   10.1000E+000.1000E+000.1000E+010.0000E+000.0000E+00
A1135A1136                   10.1000E+000.1000E+000.1000E+010.0000E+000.0000E+00
A1136A1137                   10.1000E+000.1000E+000.1000E+010.0000E+000.0000E+00
A1137A1138                   10.1000E+000.1000E+000.1000E+010.0000E+000.0000E+00
A1138A1139                   10.1000E+000.1000E+000.1000E+010.0000E+000.0000E+00
A1139A1140                   10.1000E+000.1000E+000.1000E+010.0000E+000.0000E+00
A1140A1141                   10.1000E+000.1000E+000.1000E+010.0000E+000.0000E+00
A1141A1142                   10.1000E+000.1000E+000.1000E+010.0000E+000.0000E+00
A1142A1143                   10.1000E+000.1000E+000.1000E+010.0000E+000.0000E+00
A1143A1144                   10.1000E+000.1000E+000.1000E+010.0000E+000.0000E+00
A1144A1145                   10.1000E+000.1000E+000.1000E+010.0000E+000.0000E+00
A1145A1146                   10.1000E+000.1000E+000.1000E+010.0000E+000.0000E+00
A1146A1147                   10.1000E+000.1000E+000.1000E+010.0000E+000.0000E+00
A1147A1148                   10.1000E+000.1000E+000.1000E+010.0000E+000.0000E+00
A1148A1149                   10.1000E+000.1000E+000.1000E+010.0000E+000.0000E+00
A1149A1150                   10.1000E+000.1000E+000.1000E+010.0000E+000.0000E+00
A1150A1151                   10.1000E+000.1000E+000.1000E+010.0000E+000.0000E+00
A1151A1152                   10.1000E+000.1000E+000.1000E+010.0000E+000.0000E+00
A1152A1153                   10.1000E+000.1000E+000.1000E+010.0000E+000.0000E+00
A1153A1154                   10.1000E+000.1000E+000.1000E+010.0000E+000.0000E+00
A1154A1155                   10.1000E+000.1000E+000.1000E+010.0000E+000.0000E+00
A1155A1156                   10.1000E+000.1000E+000.1000E+010.0000E+000.0000E+00
A1156A1157                   10.1000E+000.1000E+000.1000E+010.0000E+000.0000E+00
A1157A1158                   10.1000E+000.1000E+000.1000E+010.0000E+000.0000E+00
A1158A1159                   10.1000E+000.1000E+000.1000E+010.0000E+000.0000E+00
A1159A1160                   10.1000E+000.1000E+000.1000E+010.0000E+000.0000E+00

RPCAP----1----*----2----*----3----*----4----*----5----*----6----*----7----*----8
    1           .333       -.1        1.        0.
    1      9.79020E3      .333        1. 
TIMES----1----*----2----*----3----*----4----*----5----*----6----*----7----*----8
    3
   2.16e+4   4.32e+4  8.6400E4


GENER----1----*----2----*----3----*----4----*----5----*----6----*----7----*----8
A11 1    0                   1     WATE  1.1576E-4          0.                  v=0.1m/d
A1160    0                   1     WATE -1.1576E-4          0.                  v=0.1m/d

INCON----1----*----2----*----3----*----4----*----5----*----6----*----7----*----8

ENDCY




MESHM----1----*----2----*----3----*----4----*----5----*----6----*----7----*----8
XYZ
      90.0
NX      60       0.2      
NY       1       1.0     
NZ       1       1.0     

ENDFI





REFCO         1.0E05      25.0     
